<?xml version="1.0" encoding="UTF-8"?>

<!-- generated on 08/13/19 13:44:36 by Eclipse SUMO netconvert Version 1.2.0
<configuration xmlns:xsi="http://www.w3.org/2001/XMLSchema-instance" xsi:noNamespaceSchemaLocation="http://sumo.dlr.de/xsd/netconvertConfiguration.xsd">

    <input>
        <osm-files value="FFM.osm"/>
    </input>

    <output>
        <output-file value="FFM-all.net.xml"/>
    </output>

    <projection>
        <proj.utm value="true"/>
    </projection>

    <edge_removal>
        <keep-edges.by-vclass value="passenger"/>
    </edge_removal>

</configuration>
-->

<net version="1.1" junctionCornerDetail="5" limitTurnSpeed="5.50" xmlns:xsi="http://www.w3.org/2001/XMLSchema-instance" xsi:noNamespaceSchemaLocation="http://sumo.dlr.de/xsd/net_file.xsd">

    <location netOffset="-475882.99,-5550282.12" convBoundary="0.00,0.00,3181.04,2177.12" origBoundary="8.611691,50.088670,8.731139,50.133042" projParameter="+proj=utm +zone=32 +ellps=WGS84 +datum=WGS84 +units=m +no_defs"/>

    <type id="highway.bridleway" priority="1" numLanes="1" speed="2.78" allow="pedestrian" oneway="1" width="2.00"/>
    <type id="highway.bus_guideway" priority="1" numLanes="1" speed="27.78" allow="bus" oneway="1"/>
    <type id="highway.cycleway" priority="1" numLanes="1" speed="8.33" allow="bicycle" oneway="0" width="1.00"/>
    <type id="highway.footway" priority="1" numLanes="1" speed="2.78" allow="pedestrian" oneway="1" width="2.00"/>
    <type id="highway.ford" priority="1" numLanes="1" speed="2.78" allow="army" oneway="0"/>
    <type id="highway.living_street" priority="2" numLanes="1" speed="2.78" disallow="tram rail_urban rail rail_electric ship" oneway="0"/>
    <type id="highway.motorway" priority="14" numLanes="2" speed="39.44" allow="private emergency authority army vip passenger hov taxi bus coach delivery truck trailer motorcycle evehicle custom1 custom2" oneway="1"/>
    <type id="highway.motorway_link" priority="9" numLanes="1" speed="22.22" allow="private emergency authority army vip passenger hov taxi bus coach delivery truck trailer motorcycle evehicle custom1 custom2" oneway="1"/>
    <type id="highway.path" priority="1" numLanes="1" speed="2.78" allow="bicycle pedestrian" oneway="1" width="2.00"/>
    <type id="highway.pedestrian" priority="1" numLanes="1" speed="2.78" allow="pedestrian" oneway="1" width="2.00"/>
    <type id="highway.primary" priority="12" numLanes="2" speed="27.78" disallow="tram rail_urban rail rail_electric ship" oneway="0"/>
    <type id="highway.primary_link" priority="7" numLanes="1" speed="22.22" disallow="tram rail_urban rail rail_electric ship" oneway="0"/>
    <type id="highway.raceway" priority="15" numLanes="2" speed="83.33" allow="vip" oneway="0"/>
    <type id="highway.residential" priority="3" numLanes="1" speed="13.89" disallow="tram rail_urban rail rail_electric ship" oneway="0"/>
    <type id="highway.secondary" priority="11" numLanes="2" speed="27.78" disallow="tram rail_urban rail rail_electric ship" oneway="0"/>
    <type id="highway.secondary_link" priority="6" numLanes="1" speed="22.22" disallow="tram rail_urban rail rail_electric ship" oneway="0"/>
    <type id="highway.service" priority="1" numLanes="1" speed="5.56" allow="delivery bicycle pedestrian" oneway="0"/>
    <type id="highway.stairs" priority="1" numLanes="1" speed="1.39" allow="pedestrian" oneway="1" width="2.00"/>
    <type id="highway.step" priority="1" numLanes="1" speed="1.39" allow="pedestrian" oneway="1" width="2.00"/>
    <type id="highway.steps" priority="1" numLanes="1" speed="1.39" allow="pedestrian" oneway="1" width="2.00"/>
    <type id="highway.tertiary" priority="10" numLanes="1" speed="22.22" disallow="tram rail_urban rail rail_electric ship" oneway="0"/>
    <type id="highway.tertiary_link" priority="5" numLanes="1" speed="22.22" disallow="tram rail_urban rail rail_electric ship" oneway="0"/>
    <type id="highway.track" priority="1" numLanes="1" speed="5.56" disallow="tram rail_urban rail rail_electric ship" oneway="0"/>
    <type id="highway.trunk" priority="13" numLanes="2" speed="27.78" disallow="tram rail_urban rail rail_electric bicycle pedestrian ship" oneway="0"/>
    <type id="highway.trunk_link" priority="8" numLanes="1" speed="22.22" disallow="tram rail_urban rail rail_electric bicycle pedestrian ship" oneway="0"/>
    <type id="highway.unclassified" priority="4" numLanes="1" speed="13.89" disallow="tram rail_urban rail rail_electric ship" oneway="0"/>
    <type id="highway.unsurfaced" priority="1" numLanes="1" speed="8.33" disallow="tram rail_urban rail rail_electric ship" oneway="0"/>
    <type id="railway.light_rail" priority="19" numLanes="1" speed="27.78" allow="rail_urban" oneway="1"/>
    <type id="railway.preserved" priority="16" numLanes="1" speed="27.78" allow="rail" oneway="1"/>
    <type id="railway.rail" priority="20" numLanes="1" speed="83.33" allow="rail rail_electric" oneway="1"/>
    <type id="railway.subway" priority="18" numLanes="1" speed="27.78" allow="rail_urban" oneway="1"/>
    <type id="railway.tram" priority="17" numLanes="1" speed="13.89" allow="tram" oneway="1"/>

    <edge id=":1015740843_0" function="internal">
        <lane id=":1015740843_0_0" index="0" disallow="tram rail_urban rail rail_electric ship" speed="13.89" length="0.44" shape="2168.48,526.86 2168.68,526.82 2168.81,526.80 2168.95,526.79 2169.14,526.79"/>
        <lane id=":1015740843_0_1" index="1" disallow="tram rail_urban rail rail_electric ship" speed="13.89" length="0.44" shape="2169.04,530.01 2169.10,530.00 2169.15,529.99 2169.19,529.99 2169.26,529.99"/>
    </edge>
    <edge id=":1015740846_0" function="internal">
        <lane id=":1015740846_0_0" index="0" disallow="tram rail_urban rail rail_electric ship" speed="13.89" length="8.68" shape="2253.59,544.35 2245.03,543.49"/>
        <lane id=":1015740846_0_1" index="1" disallow="tram rail_urban rail rail_electric ship" speed="13.89" length="8.68" shape="2253.96,541.17 2245.24,540.30"/>
    </edge>
    <edge id=":1015740846_2" function="internal">
        <lane id=":1015740846_2_0" index="0" disallow="tram rail_urban rail rail_electric ship" speed="10.46" length="7.60" shape="2253.01,540.08 2250.94,541.79 2249.37,542.90 2247.63,543.46 2245.03,543.49"/>
        <lane id=":1015740846_2_1" index="1" disallow="tram rail_urban rail rail_electric ship" speed="8.72" length="7.60" shape="2250.64,537.87 2249.24,539.05 2248.18,539.85 2247.01,540.26 2245.24,540.30"/>
    </edge>
    <edge id=":1015740847_0" function="internal">
        <lane id=":1015740847_0_0" index="0" disallow="tram rail_urban rail rail_electric ship" speed="13.89" length="8.78" shape="2101.78,550.93 2099.33,551.61 2098.03,553.26 2096.73,555.02 2094.30,556.03"/>
        <lane id=":1015740847_0_1" index="1" disallow="tram rail_urban rail rail_electric ship" speed="13.89" length="8.78" shape="2101.78,550.93 2099.42,551.13 2097.87,551.69 2096.31,552.35 2093.97,552.84"/>
    </edge>
    <edge id=":1015740847_2" function="internal">
        <lane id=":1015740847_2_0" index="0" disallow="tram rail_urban rail rail_electric ship" speed="13.89" length="0.39" shape="2101.78,550.93 2101.74,550.94 2101.82,550.96 2101.96,550.97 2102.09,550.95"/>
    </edge>
    <edge id=":1015740847_3" function="internal">
        <lane id=":1015740847_3_0" index="0" disallow="tram rail_urban rail rail_electric ship" speed="13.89" length="8.41" shape="2093.30,546.48 2095.62,546.73 2097.22,547.57 2098.78,548.23 2100.98,547.95"/>
        <lane id=":1015740847_3_1" index="1" disallow="tram rail_urban rail rail_electric ship" speed="13.89" length="8.41" shape="2093.63,549.66 2096.18,549.88 2097.95,550.69 2099.67,551.31 2102.09,550.95"/>
    </edge>
    <edge id=":1015740847_5" function="internal">
        <lane id=":1015740847_5_0" index="0" disallow="tram rail_urban rail rail_electric ship" speed="3.65" length="2.15" shape="2093.63,549.66 2094.91,550.33 2095.29,550.93"/>
    </edge>
    <edge id=":1015740847_6" function="internal">
        <lane id=":1015740847_6_0" index="0" disallow="tram rail_urban rail rail_electric ship" speed="3.65" length="2.52" shape="2095.29,550.93 2095.39,551.09 2095.08,551.92 2093.97,552.84"/>
    </edge>
    <edge id=":1015740860_0" function="internal">
        <lane id=":1015740860_0_0" index="0" disallow="tram rail_urban rail rail_electric ship" speed="13.89" length="7.93" shape="2196.24,525.82 2198.60,525.48 2200.18,524.91 2201.76,524.40 2204.12,524.24"/>
        <lane id=":1015740860_0_1" index="1" disallow="tram rail_urban rail rail_electric ship" speed="13.89" length="7.93" shape="2196.24,525.82 2198.56,525.99 2200.11,526.51 2201.66,527.10 2203.99,527.44"/>
        <lane id=":1015740860_0_2" index="2" disallow="tram rail_urban rail rail_electric ship" speed="13.89" length="7.93" shape="2196.36,529.01 2198.60,529.19 2200.10,529.71 2201.60,530.30 2203.85,530.64"/>
    </edge>
    <edge id=":1015740861_0" function="internal">
        <lane id=":1015740861_0_0" index="0" disallow="tram rail_urban rail rail_electric ship" speed="13.89" length="0.18" shape="2144.13,538.32 2143.92,538.16"/>
        <lane id=":1015740861_0_1" index="1" disallow="tram rail_urban rail rail_electric ship" speed="13.89" length="0.18" shape="2146.03,535.75 2146.03,535.75"/>
    </edge>
    <edge id=":1015740865_0" function="internal">
        <lane id=":1015740865_0_0" index="0" disallow="tram rail_urban rail rail_electric ship" speed="13.89" length="0.29" shape="2239.35,525.74 2239.68,525.75"/>
        <lane id=":1015740865_0_1" index="1" disallow="tram rail_urban rail rail_electric ship" speed="13.89" length="0.29" shape="2239.21,528.93 2239.50,528.95"/>
        <lane id=":1015740865_0_2" index="2" disallow="tram rail_urban rail rail_electric ship" speed="13.89" length="0.29" shape="2239.08,532.13 2239.32,532.14"/>
    </edge>
    <edge id=":1015740873_0" function="internal">
        <lane id=":1015740873_0_0" index="0" disallow="tram rail_urban rail rail_electric ship" speed="13.89" length="0.30" shape="2170.52,543.16 2170.25,543.19"/>
        <lane id=":1015740873_0_1" index="1" disallow="tram rail_urban rail rail_electric ship" speed="13.89" length="0.30" shape="2170.25,539.97 2169.95,540.00"/>
        <lane id=":1015740873_0_2" index="2" disallow="tram rail_urban rail rail_electric ship" speed="13.89" length="0.30" shape="2169.97,536.79 2169.65,536.81"/>
    </edge>
    <edge id=":1015740876_0" function="internal">
        <lane id=":1015740876_0_0" index="0" disallow="tram rail_urban rail rail_electric ship" speed="13.89" length="1.70" shape="2144.57,531.75 2147.73,530.76"/>
        <lane id=":1015740876_0_1" index="1" disallow="tram rail_urban rail rail_electric ship" speed="13.89" length="1.70" shape="2148.48,533.86 2148.48,533.87"/>
    </edge>
    <edge id=":1033446263_0" function="internal">
        <lane id=":1033446263_0_0" index="0" disallow="tram rail_urban rail rail_electric ship" speed="13.89" length="0.34" shape="569.04,1240.48 568.72,1240.60"/>
    </edge>
    <edge id=":1033446263_1" function="internal">
        <lane id=":1033446263_1_0" index="0" disallow="tram rail_urban rail rail_electric ship" speed="13.89" length="0.28" shape="565.49,1231.56 565.73,1231.47"/>
        <lane id=":1033446263_1_1" index="1" disallow="tram rail_urban rail rail_electric ship" speed="13.89" length="0.28" shape="566.57,1234.57 566.83,1234.48"/>
        <lane id=":1033446263_1_2" index="2" disallow="tram rail_urban rail rail_electric ship" speed="13.89" length="0.28" shape="567.64,1237.59 567.94,1237.48"/>
    </edge>
    <edge id=":1033446611_0" function="internal">
        <lane id=":1033446611_0_0" index="0" disallow="tram rail_urban rail rail_electric ship" speed="8.33" length="0.10" shape="372.13,1214.24 372.13,1214.24"/>
    </edge>
    <edge id=":1033446651_0" function="internal">
        <lane id=":1033446651_0_0" index="0" disallow="tram rail_urban rail rail_electric ship" speed="13.89" length="11.09" shape="519.78,1258.09 509.36,1261.89"/>
    </edge>
    <edge id=":1033446651_1" function="internal">
        <lane id=":1033446651_1_0" index="0" disallow="tram rail_urban rail rail_electric ship" speed="3.65" length="2.34" shape="519.78,1258.09 518.38,1257.74 517.73,1257.12"/>
    </edge>
    <edge id=":1033446651_7" function="internal">
        <lane id=":1033446651_7_0" index="0" disallow="tram rail_urban rail rail_electric ship" speed="3.65" length="2.34" shape="517.73,1257.12 517.84,1256.23 518.70,1255.07"/>
    </edge>
    <edge id=":1033446651_2" function="internal">
        <lane id=":1033446651_2_0" index="0" disallow="tram rail_urban rail rail_electric ship" speed="5.42" length="6.37" shape="506.03,1252.88 512.40,1252.89"/>
    </edge>
    <edge id=":1033446651_3" function="internal">
        <lane id=":1033446651_3_0" index="0" disallow="tram rail_urban rail rail_electric ship" speed="13.89" length="11.16" shape="506.03,1252.88 516.54,1249.05"/>
        <lane id=":1033446651_3_1" index="1" disallow="tram rail_urban rail rail_electric ship" speed="13.89" length="11.16" shape="507.14,1255.88 517.62,1252.06"/>
        <lane id=":1033446651_3_2" index="2" disallow="tram rail_urban rail rail_electric ship" speed="13.89" length="11.16" shape="508.25,1258.89 518.70,1255.07"/>
    </edge>
    <edge id=":1033446651_6" function="internal">
        <lane id=":1033446651_6_0" index="0" disallow="tram rail_urban rail rail_electric ship" speed="3.65" length="2.34" shape="508.25,1258.89 509.65,1259.22 510.30,1259.83"/>
    </edge>
    <edge id=":1033446651_8" function="internal">
        <lane id=":1033446651_8_0" index="0" disallow="tram rail_urban rail rail_electric ship" speed="3.65" length="2.34" shape="510.30,1259.83 510.21,1260.72 509.36,1261.89"/>
    </edge>
    <edge id=":1033446677_0" function="internal">
        <lane id=":1033446677_0_0" index="0" disallow="tram rail_urban rail rail_electric ship" speed="13.89" length="3.00" shape="596.87,1210.59 597.10,1211.53 597.24,1212.17 597.33,1212.83 597.42,1213.79"/>
        <lane id=":1033446677_0_1" index="1" disallow="tram rail_urban rail rail_electric ship" speed="13.89" length="3.00" shape="593.76,1211.33 593.95,1212.13 594.07,1212.67 594.15,1213.23 594.23,1214.04"/>
    </edge>
    <edge id=":1033446677_2" function="internal">
        <lane id=":1033446677_2_0" index="0" disallow="tram rail_urban rail rail_electric ship" speed="10.71" length="6.16" shape="593.76,1211.33 594.25,1213.10 594.56,1214.36 594.56,1215.61 594.10,1217.33"/>
    </edge>
    <edge id=":1033447238_0" function="internal">
        <lane id=":1033447238_0_0" index="0" disallow="tram rail_urban rail rail_electric ship" speed="8.33" length="0.28" shape="461.69,1224.07 461.42,1224.04"/>
    </edge>
    <edge id=":1033447250_0" function="internal">
        <lane id=":1033447250_0_0" index="0" disallow="tram rail_urban rail rail_electric ship" speed="13.89" length="8.09" shape="584.17,1257.70 583.77,1255.32 583.13,1253.75 582.49,1252.17 582.12,1249.79"/>
        <lane id=":1033447250_0_1" index="1" disallow="tram rail_urban rail rail_electric ship" speed="13.89" length="8.09" shape="584.17,1257.70 584.27,1255.30 584.72,1253.67 585.19,1252.03 585.31,1249.62"/>
        <lane id=":1033447250_0_2" index="2" disallow="tram rail_urban rail rail_electric ship" speed="13.89" length="8.09" shape="587.34,1257.13 587.45,1254.85 587.91,1253.30 588.38,1251.75 588.51,1249.46"/>
    </edge>
    <edge id=":1033447988_0" function="internal">
        <lane id=":1033447988_0_0" index="0" disallow="tram rail_urban rail rail_electric ship" speed="8.33" length="0.29" shape="375.62,1113.17 375.33,1113.20"/>
    </edge>
    <edge id=":1033448097_0" function="internal">
        <lane id=":1033448097_0_0" index="0" disallow="tram rail_urban rail rail_electric ship" speed="13.89" length="0.44" shape="576.15,1216.32 576.08,1216.04"/>
        <lane id=":1033448097_0_1" index="1" disallow="tram rail_urban rail rail_electric ship" speed="13.89" length="0.44" shape="579.27,1215.57 579.15,1215.15"/>
        <lane id=":1033448097_0_2" index="2" disallow="tram rail_urban rail rail_electric ship" speed="13.89" length="0.44" shape="582.38,1214.83 582.23,1214.26"/>
    </edge>
    <edge id=":104169561_0" function="internal">
        <lane id=":104169561_0_0" index="0" disallow="tram rail_urban rail rail_electric ship" speed="13.89" length="4.91" shape="2152.80,544.84 2148.75,542.06"/>
    </edge>
    <edge id=":104169561_1" function="internal">
        <lane id=":104169561_1_0" index="0" disallow="tram rail_urban rail rail_electric ship" speed="8.05" length="6.58" shape="2152.50,541.65 2150.60,541.69 2148.94,541.42 2147.52,540.85 2146.33,539.97"/>
    </edge>
    <edge id=":104169561_2" function="internal">
        <lane id=":104169561_2_0" index="0" disallow="tram rail_urban rail rail_electric ship" speed="4.95" length="2.20" shape="2152.19,538.47 2150.12,539.17"/>
    </edge>
    <edge id=":104170028_0" function="internal">
        <lane id=":104170028_0_0" index="0" disallow="tram rail_urban rail rail_electric ship" speed="13.89" length="1.34" shape="2146.26,539.90 2146.24,539.88 2146.22,539.87 2146.20,539.86 2146.18,539.84"/>
        <lane id=":104170028_0_1" index="1" disallow="tram rail_urban rail rail_electric ship" speed="13.89" length="1.34" shape="2149.97,539.04 2149.43,538.49 2149.07,538.11 2148.69,537.75 2148.09,537.27"/>
    </edge>
    <edge id=":1046609056_0" function="internal">
        <lane id=":1046609056_0_0" index="0" disallow="tram rail_urban rail rail_electric ship" speed="3.65" length="4.67" shape="1616.68,1085.53 1615.57,1084.61 1615.25,1083.78 1615.73,1083.02 1617.01,1082.35"/>
    </edge>
    <edge id=":1102636261_0" function="internal">
        <lane id=":1102636261_0_0" index="0" disallow="tram rail_urban rail rail_electric ship" speed="13.89" length="19.48" shape="2300.81,1040.91 2299.17,1044.43 2297.48,1048.39 2296.36,1053.27 2296.39,1059.55"/>
    </edge>
    <edge id=":1102636261_1" function="internal">
        <lane id=":1102636261_1_0" index="0" disallow="tram rail_urban rail rail_electric ship" speed="13.89" length="20.29" shape="2296.65,1040.23 2295.23,1046.06 2293.87,1050.04 2293.03,1054.03 2293.21,1059.91"/>
        <lane id=":1102636261_1_1" index="1" disallow="tram rail_urban rail rail_electric ship" speed="13.89" length="20.29" shape="2293.39,1040.32 2291.98,1046.18 2290.64,1050.22 2289.83,1054.30 2290.03,1060.27"/>
    </edge>
    <edge id=":1102636265_0" function="internal">
        <lane id=":1102636265_0_0" index="0" disallow="tram rail_urban rail rail_electric ship" speed="13.89" length="0.87" shape="2311.46,1026.41 2311.23,1026.50 2311.07,1026.58 2310.94,1026.71 2310.77,1026.90"/>
    </edge>
    <edge id=":1102636267_0" function="internal">
        <lane id=":1102636267_0_0" index="0" disallow="tram rail_urban rail rail_electric ship" speed="13.89" length="9.24" shape="2324.55,1022.83 2321.83,1023.14 2319.97,1023.45 2318.16,1023.97 2315.58,1024.89"/>
    </edge>
    <edge id=":1102636267_1" function="internal">
        <lane id=":1102636267_1_0" index="0" disallow="tram rail_urban rail rail_electric ship" speed="13.89" length="7.94" shape="2324.21,1019.65 2321.81,1019.84 2320.16,1019.85 2318.50,1019.76 2316.09,1019.70"/>
        <lane id=":1102636267_1_1" index="1" disallow="tram rail_urban rail rail_electric ship" speed="13.89" length="7.94" shape="2323.86,1016.47 2321.52,1016.66 2319.91,1016.65 2318.29,1016.57 2315.93,1016.50"/>
        <lane id=":1102636267_1_2" index="2" disallow="tram rail_urban rail rail_electric ship" speed="13.89" length="7.94" shape="2323.52,1013.29 2321.23,1013.47 2319.66,1013.46 2318.08,1013.37 2315.77,1013.30"/>
    </edge>
    <edge id=":1112276309_0" function="internal">
        <lane id=":1112276309_0_0" index="0" disallow="tram rail_urban rail rail_electric ship" speed="13.89" length="0.27" shape="2249.64,651.18 2249.63,651.40"/>
        <lane id=":1112276309_0_1" index="1" disallow="tram rail_urban rail rail_electric ship" speed="13.89" length="0.27" shape="2246.45,651.00 2246.43,651.31"/>
    </edge>
    <edge id=":1115434643_0" function="internal">
        <lane id=":1115434643_0_0" index="0" disallow="tram rail_urban rail rail_electric ship" speed="8.33" length="0.23" shape="456.89,1106.24 456.82,1106.26 456.78,1106.27 456.73,1106.27 456.66,1106.28"/>
    </edge>
    <edge id=":1115769854_0" function="internal">
        <lane id=":1115769854_0_0" index="0" disallow="tram rail_urban rail rail_electric ship" speed="8.33" length="0.10" shape="2587.82,1413.34 2587.82,1413.34"/>
    </edge>
    <edge id=":1116037885_0" function="internal">
        <lane id=":1116037885_0_0" index="0" disallow="tram rail_urban rail rail_electric ship" speed="13.89" length="1.31" shape="806.58,645.89 806.49,646.05"/>
        <lane id=":1116037885_0_1" index="1" disallow="tram rail_urban rail rail_electric ship" speed="13.89" length="1.31" shape="804.96,642.29 803.73,644.44"/>
        <lane id=":1116037885_0_2" index="2" disallow="tram rail_urban rail rail_electric ship" speed="13.89" length="1.31" shape="801.03,642.71 800.96,642.83"/>
        <lane id=":1116037885_0_3" index="3" disallow="tram rail_urban rail rail_electric ship" speed="13.89" length="1.31" shape="799.40,639.11 798.19,641.23"/>
    </edge>
    <edge id=":1137603663_0" function="internal">
        <lane id=":1137603663_0_0" index="0" disallow="tram rail_urban rail rail_electric ship" speed="6.61" length="8.52" shape="1700.62,1246.67 1698.26,1246.73 1696.41,1247.47 1695.08,1248.88 1694.27,1250.97"/>
    </edge>
    <edge id=":1137603663_1" function="internal">
        <lane id=":1137603663_1_0" index="0" disallow="tram rail_urban rail rail_electric ship" speed="6.99" length="11.16" shape="1700.62,1246.67 1696.99,1245.94 1694.53,1244.64 1693.25,1242.78 1693.15,1240.36"/>
    </edge>
    <edge id=":1137603663_2" function="internal">
        <lane id=":1137603663_2_0" index="0" disallow="tram rail_urban rail rail_electric ship" speed="8.33" length="10.25" shape="1696.30,1240.92 1694.27,1250.97"/>
    </edge>
    <edge id=":1137603663_3" function="internal">
        <lane id=":1137603663_3_0" index="0" disallow="tram rail_urban rail rail_electric ship" speed="3.65" length="4.67" shape="1696.30,1240.92 1695.30,1241.96 1694.45,1242.21 1693.73,1241.68 1693.15,1240.36"/>
    </edge>
    <edge id=":1137603663_4" function="internal">
        <lane id=":1137603663_4_0" index="0" disallow="tram rail_urban rail rail_electric ship" speed="8.33" length="10.10" shape="1691.15,1250.26 1693.15,1240.36"/>
    </edge>
    <edge id=":1137603663_5" function="internal">
        <lane id=":1137603663_5_0" index="0" disallow="tram rail_urban rail rail_electric ship" speed="3.65" length="4.67" shape="1691.15,1250.26 1692.20,1249.27 1693.07,1249.05 1693.76,1249.62 1694.27,1250.97"/>
    </edge>
    <edge id=":1137603669_0" function="internal">
        <lane id=":1137603669_0_0" index="0" disallow="tram rail_urban rail rail_electric ship" speed="13.89" length="0.29" shape="1780.07,1244.27 1780.10,1244.00"/>
        <lane id=":1137603669_0_1" index="1" disallow="tram rail_urban rail rail_electric ship" speed="13.89" length="0.29" shape="1783.26,1244.54 1783.29,1244.23"/>
    </edge>
    <edge id=":1138233084_0" function="internal">
        <lane id=":1138233084_0_0" index="0" disallow="tram rail_urban rail rail_electric ship" speed="2.78" length="0.10" shape="1769.55,1253.45 1769.55,1253.45"/>
    </edge>
    <edge id=":1138233087_0" function="internal">
        <lane id=":1138233087_0_0" index="0" disallow="tram rail_urban rail rail_electric ship" speed="8.34" length="0.25" shape="1751.75,1252.10 1751.50,1252.08"/>
    </edge>
    <edge id=":1144707956_0" function="internal">
        <lane id=":1144707956_0_0" index="0" disallow="tram rail_urban rail rail_electric ship" speed="27.78" length="8.16" shape="874.58,834.98 872.24,834.28 870.53,834.15 868.84,833.99 866.53,833.21"/>
        <lane id=":1144707956_0_1" index="1" disallow="tram rail_urban rail rail_electric ship" speed="27.78" length="8.16" shape="874.58,834.98 872.46,833.82 871.20,832.69 869.95,831.53 867.87,830.30"/>
        <lane id=":1144707956_0_2" index="2" disallow="tram rail_urban rail rail_electric ship" speed="27.78" length="8.16" shape="875.81,832.02 873.72,830.88 872.48,829.76 871.25,828.61 869.20,827.39"/>
        <lane id=":1144707956_0_3" index="3" disallow="tram rail_urban rail rail_electric ship" speed="27.78" length="8.16" shape="877.03,829.07 874.98,827.94 873.76,826.82 872.55,825.68 870.53,824.48"/>
    </edge>
    <edge id=":1166321672_0" function="internal">
        <lane id=":1166321672_0_0" index="0" disallow="tram rail_urban rail rail_electric ship" speed="13.89" length="0.30" shape="1178.09,956.10 1178.24,955.85"/>
    </edge>
    <edge id=":119696730_0" function="internal">
        <lane id=":119696730_0_0" index="0" disallow="tram rail_urban rail rail_electric ship" speed="13.89" length="1.69" shape="1809.56,915.21 1809.50,915.20"/>
        <lane id=":119696730_0_1" index="1" disallow="tram rail_urban rail rail_electric ship" speed="13.89" length="1.69" shape="1812.99,912.18 1809.71,912.01"/>
    </edge>
    <edge id=":119696730_2" function="internal">
        <lane id=":119696730_2_0" index="0" disallow="tram rail_urban rail rail_electric ship" speed="13.89" length="1.92" shape="1806.33,905.38 1810.06,905.62"/>
        <lane id=":119696730_2_1" index="1" disallow="tram rail_urban rail rail_electric ship" speed="13.89" length="1.92" shape="1809.92,908.82 1809.90,908.82"/>
    </edge>
    <edge id=":119696781_0" function="internal">
        <lane id=":119696781_0_0" index="0" disallow="tram rail_urban rail rail_electric ship" speed="13.89" length="0.29" shape="1827.25,1484.95 1827.53,1484.80"/>
        <lane id=":119696781_0_1" index="1" disallow="tram rail_urban rail rail_electric ship" speed="13.89" length="0.29" shape="1828.79,1487.76 1829.03,1487.63"/>
    </edge>
    <edge id=":119696789_0" function="internal">
        <lane id=":119696789_0_0" index="0" disallow="tram rail_urban rail rail_electric ship" speed="13.89" length="0.10" shape="1878.88,1569.01 1878.88,1569.01"/>
        <lane id=":119696789_0_1" index="1" disallow="tram rail_urban rail rail_electric ship" speed="13.89" length="0.10" shape="1876.48,1566.89 1876.48,1566.89"/>
        <lane id=":119696789_0_2" index="2" disallow="tram rail_urban rail rail_electric ship" speed="13.89" length="0.10" shape="1874.08,1564.78 1874.08,1564.78"/>
    </edge>
    <edge id=":119696857_0" function="internal">
        <lane id=":119696857_0_0" index="0" disallow="tram rail_urban rail rail_electric ship" speed="13.89" length="0.24" shape="2306.37,1008.42 2306.39,1008.36"/>
        <lane id=":119696857_0_1" index="1" disallow="tram rail_urban rail rail_electric ship" speed="13.89" length="0.24" shape="2303.45,1007.11 2303.38,1007.28"/>
        <lane id=":119696857_0_2" index="2" disallow="tram rail_urban rail rail_electric ship" speed="13.89" length="0.24" shape="2300.53,1005.80 2300.37,1006.19"/>
    </edge>
    <edge id=":1217806530_0" function="internal">
        <lane id=":1217806530_0_0" index="0" disallow="tram rail_urban rail rail_electric ship" speed="3.65" length="4.67" shape="2416.13,518.11 2414.85,517.45 2414.36,516.70 2414.67,515.86 2415.78,514.93"/>
    </edge>
    <edge id=":1269531452_0" function="internal">
        <lane id=":1269531452_0_0" index="0" disallow="tram rail_urban rail rail_electric ship" speed="13.89" length="0.10" shape="946.02,363.92 946.02,363.92"/>
    </edge>
    <edge id=":1269531452_1" function="internal">
        <lane id=":1269531452_1_0" index="0" disallow="tram rail_urban rail rail_electric ship" speed="13.89" length="0.10" shape="947.16,360.93 947.16,360.93"/>
    </edge>
    <edge id=":1269531456_0" function="internal">
        <lane id=":1269531456_0_0" index="0" disallow="tram rail_urban rail rail_electric ship" speed="13.89" length="2.66" shape="921.55,353.53 920.84,353.18 920.35,352.95 919.87,352.69 919.22,352.26"/>
    </edge>
    <edge id=":1269531456_1" function="internal">
        <lane id=":1269531456_1_0" index="0" disallow="tram rail_urban rail rail_electric ship" speed="13.89" length="0.10" shape="921.08,349.65 921.07,349.66"/>
    </edge>
    <edge id=":1269531464_0" function="internal">
        <lane id=":1269531464_0_0" index="0" disallow="tram rail_urban rail rail_electric ship" speed="13.89" length="0.48" shape="931.97,369.26 931.89,369.49 931.83,369.64 931.76,369.79 931.66,370.00"/>
        <lane id=":1269531464_0_1" index="1" disallow="tram rail_urban rail rail_electric ship" speed="13.89" length="0.48" shape="928.97,368.16 928.92,368.29 928.88,368.39 928.84,368.48 928.78,368.60"/>
        <lane id=":1269531464_0_2" index="2" disallow="tram rail_urban rail rail_electric ship" speed="13.89" length="0.48" shape="925.97,367.06 925.95,367.10 925.94,367.13 925.92,367.16 925.90,367.21"/>
    </edge>
    <edge id=":1269531473_0" function="internal">
        <lane id=":1269531473_0_0" index="0" disallow="tram rail_urban rail rail_electric ship" speed="13.89" length="0.15" shape="916.66,350.43 916.53,350.35"/>
    </edge>
    <edge id=":1269531473_1" function="internal">
        <lane id=":1269531473_1_0" index="0" disallow="tram rail_urban rail rail_electric ship" speed="13.89" length="0.28" shape="918.28,347.67 918.51,347.83"/>
    </edge>
    <edge id=":1275907470_0" function="internal">
        <lane id=":1275907470_0_0" index="0" disallow="tram rail_urban rail rail_electric ship" speed="27.78" length="0.39" shape="54.71,707.21 54.66,707.18 54.63,707.16 54.59,707.14 54.54,707.12"/>