<?xml version="1.0" encoding="UTF-8"?>

<!-- generated on 08/13/19 13:45:43 by Eclipse SUMO polyconvert Version 1.2.0
<configuration xmlns:xsi="http://www.w3.org/2001/XMLSchema-instance" xsi:noNamespaceSchemaLocation="http://sumo.dlr.de/xsd/polyconvertConfiguration.xsd">

    <input>
        <net-file value=".\FFM-all.net.xml"/>
        <osm-files value="FFM.osm"/>
        <type-file value="C:\Program%20Files%20(x86)\Sumo\data\typemap\osmPolyconvert.typ.xml"/>
    </input>

    <output>
        <output-file value="FFM-all.poly.xml"/>
    </output>

    <processing>
        <poi-layer-offset value="5"/>
    </processing>

</configuration>
-->

<additional xmlns:xsi="http://www.w3.org/2001/XMLSchema-instance" xsi:noNamespaceSchemaLocation="http://sumo.dlr.de/xsd/additional_file.xsd">
    <location netOffset="-475882.99,-5550282.12" convBoundary="-3660.45,-1725.78,4881.53,3864.60" origBoundary="8.611691,50.088670,8.731139,50.139158" projParameter="+proj=utm +zone=32 +ellps=WGS84 +datum=WGS84 +units=m +no_defs"/>

    <poly id="106616588" type="building" color="255,230,230" fill="1" layer="-1.00" shape="168.346100,419.873077 167.777193,420.576117 169.671934,422.124259 170.205287,421.465854 173.357215,424.309266 180.628780,427.334350 181.489341,424.695324 183.781790,417.657932 181.761382,416.788598 170.048375,405.611070 169.712765,404.122648 171.056405,402.370963 172.283650,403.366156 177.427982,397.639118 175.949567,396.444910 172.116618,393.226509 175.741262,388.262366 173.517681,386.737934 175.977449,383.524675 171.344215,380.443290 159.865839,396.083410 151.390549,405.283379 161.677549,414.187898 168.346100,419.873077"/>
    <poly id="107021598" type="parking" color="184,184,179" fill="1" layer="-1.00" shape="1221.886745,746.838018 1224.459990,738.298830 1250.441784,746.081872 1247.868502,754.621048 1221.886745,746.838018"/>
    <poly id="11018344" type="tourism" color="207,245,201" fill="1" layer="-2.00" shape="742.632150,613.209051 700.279147,679.896477 686.181709,672.464217 661.484950,713.323247 629.744072,690.457872 619.997836,682.272803 614.094838,673.259157 609.671054,660.792159 610.567067,649.925095 649.934390,574.410590 656.289272,570.713443 672.887577,572.775358 742.632150,613.209051"/>
    <poly id="11018647" type="amenity" color="237,199,199" fill="1" layer="-1.00" shape="852.298937,386.695063 805.334750,360.981858 758.547547,449.392123 756.433363,448.311725 750.818916,459.488494 746.992072,467.377386 830.305846,511.933538 850.073331,522.510340 857.866745,507.566013 854.583976,505.779060 856.406733,502.346515 858.987448,503.836318 866.840379,487.768742 875.904002,462.344960 885.399931,436.007569 895.016839,409.514007 868.349368,395.842680 864.834753,403.229777 849.662530,395.412605 852.298937,386.695063"/>
    <poly id="11018647#1" type="building" color="255,230,230" fill="1" layer="-1.00" shape="852.298937,386.695063 805.334750,360.981858 758.547547,449.392123 756.433363,448.311725 750.818916,459.488494 746.992072,467.377386 830.305846,511.933538 850.073331,522.510340 857.866745,507.566013 854.583976,505.779060 856.406733,502.346515 858.987448,503.836318 866.840379,487.768742 875.904002,462.344960 885.399931,436.007569 895.016839,409.514007 868.349368,395.842680 864.834753,403.229777 849.662530,395.412605 852.298937,386.695063"/>
    <poly id="11018724" type="tourism" color="207,245,201" fill="1" layer="-2.00" shape="1235.709317,470.097489 1162.413523,444.805386 1028.370450,387.843291 945.952947,347.193998 835.728571,279.626106 810.504227,270.740994 769.462623,232.582507 693.196659,162.334078 592.039537,68.668852 422.892303,-89.193664 423.821813,-102.129002 405.393128,-119.715054 401.157996,-123.265398 357.647113,-154.104696 335.877222,-167.105801 316.643365,-177.494072 207.392376,-232.689265 173.449972,-247.225199 135.711310,-266.213649 99.371632,-284.162955 100.453920,-286.814106 102.557234,-291.426766 108.777381,-306.153841 157.100000,-352.736411 215.739773,-323.456384 228.629961,-319.644695 256.213282,-302.244700 386.343286,-203.032876 412.615259,-182.746472 434.300729,-164.563301 452.357412,-148.632209 508.214080,-97.710512 632.156224,30.899478 789.892128,168.537645 852.554174,217.131597 900.395523,248.634322 1139.228081,392.624319 1185.364092,419.088967 1203.331255,428.473969 1230.275614,441.923399 1244.289137,448.167735 1243.093837,451.241655 1235.709317,470.097489"/>
    <poly id="11018815" type="amenity" color="237,199,199" fill="1" layer="-1.00" shape="1610.251842,712.197191 1616.697038,712.848275 1614.684781,732.492625 1613.515760,733.353702 1614.061985,734.018530 1615.736327,732.599381 1628.183215,733.870082 1629.312396,735.433082 1629.961095,734.963359 1628.796163,733.400509 1629.421120,727.293635 1631.144925,727.430920 1631.226138,726.340931 1629.530981,726.214645 1630.059818,721.053276 1631.690905,721.246546 1631.822123,720.145228 1630.176688,719.940900 1630.733050,714.523683 1639.125530,715.744773 1639.070669,716.300946 1639.502958,717.077445 1640.976601,717.238024 1641.388317,716.524685 1641.443226,715.979631 1652.402155,717.078751 1653.670307,715.983769 1654.109630,711.634455 1653.770904,711.002106 1657.562047,707.950715 1658.880960,708.723486 1659.328197,707.954405 1657.772765,707.049203 1658.198026,702.755543 1659.647650,702.304692 1659.393978,701.494083 1657.801537,701.990011 1655.112807,698.543363 1655.589439,697.963178 1656.007970,693.769616 1654.750926,692.407287 1633.253701,689.940436 1633.755256,685.090510 1635.300457,685.261905 1635.403638,684.294132 1633.851286,684.122767 1634.407515,678.672194 1635.945568,678.843620 1636.041973,677.964826 1634.503873,677.782282 1634.606726,676.736678 1634.853976,674.322849 1635.826832,674.418822 1636.739772,673.870155 1636.890898,672.401833 1635.503875,670.739847 1636.679643,669.778676 1636.140564,669.113816 1634.501340,670.388265 1621.195899,669.032215 1620.316914,667.457044 1619.554881,668.182979 1620.008955,669.037216 1613.928558,668.429065 1613.839166,669.274474 1614.697572,669.359807 1614.038560,675.867104 1613.137253,675.781952 1613.054918,676.605093 1613.977629,676.679036 1613.410588,682.952451 1597.930324,681.327655 1597.318384,687.123150 1597.229042,687.979678 1596.830367,691.784002 1595.415480,705.555092 1583.955670,704.380371 1583.681017,707.072289 1583.433604,709.441646 1582.504711,716.372603 1588.914154,717.023804 1594.193208,717.524118 1594.907703,710.616305 1601.424452,711.278188 1602.225651,711.363761 1609.522192,712.122435 1610.251842,712.197191"/>
    <poly id="11018815#1" type="building" color="255,230,230" fill="1" layer="-1.00" shape="1610.251842,712.197191 1616.697038,712.848275 1614.684781,732.492625 1613.515760,733.353702 1614.061985,734.018530 1615.736327,732.599381 1628.183215,733.870082 1629.312396,735.433082 1629.961095,734.963359 1628.796163,733.400509 1629.421120,727.293635 1631.144925,727.430920 1631.226138,726.340931 1629.530981,726.214645 1630.059818,721.053276 1631.690905,721.246546 1631.822123,720.145228 1630.176688,719.940900 1630.733050,714.523683 1639.125530,715.744773 1639.070669,716.300946 1639.502958,717.077445 1640.976601,717.238024 1641.388317,716.524685 1641.443226,715.979631 1652.402155,717.078751 1653.670307,715.983769 1654.109630,711.634455 1653.770904,711.002106 1657.562047,707.950715 1658.880960,708.723486 1659.328197,707.954405 1657.772765,707.049203 1658.198026,702.755543 1659.647650,702.304692 1659.393978,701.494083 1657.801537,701.990011 1655.112807,698.543363 1655.589439,697.963178 1656.007970,693.769616 1654.750926,692.407287 1633.253701,689.940436 1633.755256,685.090510 1635.300457,685.261905 1635.403638,684.294132 1633.851286,684.122767 1634.407515,678.672194 1635.945568,678.843620 1636.041973,677.964826 1634.503873,677.782282 1634.606726,676.736678 1634.853976,674.322849 1635.826832,674.418822 1636.739772,673.870155 1636.890898,672.401833 1635.503875,670.739847 1636.679643,669.778676 1636.140564,669.113816 1634.501340,670.388265 1621.195899,669.032215 1620.316914,667.457044 1619.554881,668.182979 1620.008955,669.037216 1613.928558,668.429065 1613.839166,669.274474 1614.697572,669.359807 1614.038560,675.867104 1613.137253,675.781952 1613.054918,676.605093 1613.977629,676.679036 1613.410588,682.952451 1597.930324,681.327655 1597.318384,687.123150 1597.229042,687.979678 1596.830367,691.784002 1595.415480,705.555092 1583.955670,704.380371 1583.681017,707.072289 1583.433604,709.441646 1582.504711,716.372603 1588.914154,717.023804 1594.193208,717.524118 1594.907703,710.616305 1601.424452,711.278188 1602.225651,711.363761 1609.522192,712.122435 1610.251842,712.197191"/>
    <poly id="11018815#2" type="historic" color="128,255,128" fill="1" layer="-1.00" shape="1610.251842,712.197191 1616.697038,712.848275 1614.684781,732.492625 1613.515760,733.353702 1614.061985,734.018530 1615.736327,732.599381 1628.183215,733.870082 1629.312396,735.433082 1629.961095,734.963359 1628.796163,733.400509 1629.421120,727.293635 1631.144925,727.430920 1631.226138,726.340931 1629.530981,726.214645 1630.059818,721.053276 1631.690905,721.246546 1631.822123,720.145228 1630.176688,719.940900 1630.733050,714.523683 1639.125530,715.744773 1639.070669,716.300946 1639.502958,717.077445 1640.976601,717.238024 1641.388317,716.524685 1641.443226,715.979631 1652.402155,717.078751 1653.670307,715.983769 1654.109630,711.634455 1653.770904,711.002106 1657.562047,707.950715 1658.880960,708.723486 1659.328197,707.954405 1657.772765,707.049203 1658.198026,702.755543 1659.647650,702.304692 1659.393978,701.494083 1657.801537,701.990011 1655.112807,698.543363 1655.589439,697.963178 1656.007970,693.769616 1654.750926,692.407287 1633.253701,689.940436 1633.755256,685.090510 1635.300457,685.261905 1635.403638,684.294132 1633.851286,684.122767 1634.407515,678.672194 1635.945568,678.843620 1636.041973,677.964826 1634.503873,677.782282 1634.606726,676.736678 1634.853976,674.322849 1635.826832,674.418822 1636.739772,673.870155 1636.890898,672.401833 1635.503875,670.739847 1636.679643,669.778676 1636.140564,669.113816 1634.501340,670.388265 1621.195899,669.032215 1620.316914,667.457044 1619.554881,668.182979 1620.008955,669.037216 1613.928558,668.429065 1613.839166,669.274474 1614.697572,669.359807 1614.038560,675.867104 1613.137253,675.781952 1613.054918,676.605093 1613.977629,676.679036 1613.410588,682.952451 1597.930324,681.327655 1597.318384,687.123150 1597.229042,687.979678 1596.830367,691.784002 1595.415480,705.555092 1583.955670,704.380371 1583.681017,707.072289 1583.433604,709.441646 1582.504711,716.372603 1588.914154,717.023804 1594.193208,717.524118 1594.907703,710.616305 1601.424452,711.278188 1602.225651,711.363761 1609.522192,712.122435 1610.251842,712.197191"/>
    <poly id="11018815#3" type="tourism" color="207,245,201" fill="1" layer="-2.00" shape="1610.251842,712.197191 1616.697038,712.848275 1614.684781,732.492625 1613.515760,733.353702 1614.061985,734.018530 1615.736327,732.599381 1628.183215,733.870082 1629.312396,735.433082 1629.961095,734.963359 1628.796163,733.400509 1629.421120,727.293635 1631.144925,727.430920 1631.226138,726.340931 1629.530981,726.214645 1630.059818,721.053276 1631.690905,721.246546 1631.822123,720.145228 1630.176688,719.940900 1630.733050,714.523683 1639.125530,715.744773 1639.070669,716.300946 1639.502958,717.077445 1640.976601,717.238024 1641.388317,716.524685 1641.443226,715.979631 1652.402155,717.078751 1653.670307,715.983769 1654.109630,711.634455 1653.770904,711.002106 1657.562047,707.950715 1658.880960,708.723486 1659.328197,707.954405 1657.772765,707.049203 1658.198026,702.755543 1659.647650,702.304692 1659.393978,701.494083 1657.801537,701.990011 1655.112807,698.543363 1655.589439,697.963178 1656.007970,693.769616 1654.750926,692.407287 1633.253701,689.940436 1633.755256,685.090510 1635.300457,685.261905 1635.403638,684.294132 1633.851286,684.122767 1634.407515,678.672194 1635.945568,678.843620 1636.041973,677.964826 1634.503873,677.782282 1634.606726,676.736678 1634.853976,674.322849 1635.826832,674.418822 1636.739772,673.870155 1636.890898,672.401833 1635.503875,670.739847 1636.679643,669.778676 1636.140564,669.113816 1634.501340,670.388265 1621.195899,669.032215 1620.316914,667.457044 1619.554881,668.182979 1620.008955,669.037216 1613.928558,668.429065 1613.839166,669.274474 1614.697572,669.359807 1614.038560,675.867104 1613.137253,675.781952 1613.054918,676.605093 1613.977629,676.679036 1613.410588,682.952451 1597.930324,681.327655 1597.318384,687.123150 1597.229042,687.979678 1596.830367,691.784002 1595.415480,705.555092 1583.955670,704.380371 1583.681017,707.072289 1583.433604,709.441646 1582.504711,716.372603 1588.914154,717.023804 1594.193208,717.524118 1594.907703,710.616305 1601.424452,711.278188 1602.225651,711.363761 1609.522192,712.122435 1610.251842,712.197191"/>
    <poly id="11019055" type="landuse" color="194,194,130" fill="1" layer="-3.00" shape="1977.871930,832.911786 1955.440719,834.361345 1928.013254,829.338361 1925.475870,848.484424 1895.455137,859.450154 1924.164291,907.942296 1985.349137,908.355443 2035.858643,908.702245 2048.351656,912.608895 2049.322350,900.085074 2062.218771,901.254856 2062.286811,898.686124 2062.543615,877.770535 2069.516199,836.513099 2048.402992,831.619089 1978.196952,835.423295 1977.871930,832.911786"/>
    <poly id="11526375" type="amenity" color="237,199,199" fill="1" layer="-1.00" shape="1311.186000,758.375239 1310.411293,756.121423 1309.502679,754.324051 1308.208337,752.617279 1306.362814,750.768316 1304.288865,749.009281 1301.758207,747.463456 1299.859375,746.526469 1302.157593,735.508992 1291.221758,733.131825 1288.608954,744.150651 1287.100744,744.268289 1284.770693,744.489510 1282.677644,744.954334 1280.192763,745.754399 1277.709071,746.832432 1275.350121,748.654895 1273.812488,750.251468 1272.625928,752.013322 1271.654683,753.963276 1270.942556,756.312399 1270.405458,759.461330 1270.494006,761.773671 1270.650058,763.151740 1270.905499,764.362601 1271.383355,765.750412 1266.390333,770.263792 1266.324875,771.676166 1272.602347,778.253896 1273.724583,778.171263 1278.910515,773.623708 1281.727458,775.235011 1284.348826,776.257852 1287.126212,776.979819 1289.623506,777.413895 1291.419043,777.606358 1293.900373,777.651345 1296.466173,777.384644 1298.987986,783.555944 1300.385062,784.205985 1308.707084,780.656873 1309.188305,779.487338 1306.472642,773.127842 1308.358876,771.118392 1309.793418,768.821782 1310.317019,767.529759 1311.059947,765.691977 1311.501714,763.655341 1311.564240,761.553613 1311.363112,759.664268 1311.186000,758.375239"/>
    <poly id="11526375#1" type="building" color="255,230,230" fill="1" layer="-1.00" shape="1311.186000,758.375239 1310.411293,756.121423 1309.502679,754.324051 1308.208337,752.617279 1306.362814,750.768316 1304.288865,749.009281 1301.758207,747.463456 1299.859375,746.526469 1302.157593,735.508992 1291.221758,733.131825 1288.608954,744.150651 1287.100744,744.268289 1284.770693,744.489510 1282.677644,744.954334 1280.192763,745.754399 1277.709071,746.832432 1275.350121,748.654895 1273.812488,750.251468 1272.625928,752.013322 1271.654683,753.963276 1270.942556,756.312399 1270.405458,759.461330 1270.494006,761.773671 1270.650058,763.151740 1270.905499,764.362601 1271.383355,765.750412 1266.390333,770.263792 1266.324875,771.676166 1272.602347,778.253896 1273.724583,778.171263 1278.910515,773.623708 1281.727458,775.235011 1284.348826,776.257852 1287.126212,776.979819 1289.623506,777.413895 1291.419043,777.606358 1293.900373,777.651345 1296.466173,777.384644 1298.987986,783.555944 1300.385062,784.205985 1308.707084,780.656873 1309.188305,779.487338 1306.472642,773.127842 1308.358876,771.118392 1309.793418,768.821782 1310.317019,767.529759 1311.059947,765.691977 1311.501714,763.655341 1311.564240,761.553613 1311.363112,759.664268 1311.186000,758.375239"/>
    <poly id="11526375#2" type="tourism" color="207,245,201" fill="1" layer="-2.00" shape="1311.186000,758.375239 1310.411293,756.121423 1309.502679,754.324051 1308.208337,752.617279 1306.362814,750.768316 1304.288865,749.009281 1301.758207,747.463456 1299.859375,746.526469 1302.157593,735.508992 1291.221758,733.131825 1288.608954,744.150651 1287.100744,744.268289 1284.770693,744.489510 1282.677644,744.954334 1280.192763,745.754399 1277.709071,746.832432 1275.350121,748.654895 1273.812488,750.251468 1272.625928,752.013322 1271.654683,753.963276 1270.942556,756.312399 1270.405458,759.461330 1270.494006,761.773671 1270.650058,763.151740 1270.905499,764.362601 1271.383355,765.750412 1266.390333,770.263792 1266.324875,771.676166 1272.602347,778.253896 1273.724583,778.171263 1278.910515,773.623708 1281.727458,775.235011 1284.348826,776.257852 1287.126212,776.979819 1289.623506,777.413895 1291.419043,777.606358 1293.900373,777.651345 1296.466173,777.384644 1298.987986,783.555944 1300.385062,784.205985 1308.707084,780.656873 1309.188305,779.487338 1306.472642,773.127842 1308.358876,771.118392 1309.793418,768.821782 1310.317019,767.529759 1311.059947,765.691977 1311.501714,763.655341 1311.564240,761.553613 1311.363112,759.664268 1311.186000,758.375239"/>
    <poly id="11526963" type="building" color="255,230,230" fill="1" layer="-1.00" shape="687.761057,910.156145 691.430650,904.002434 696.721218,907.148098 697.586830,905.621017 698.075495,904.551464 698.774220,902.469173 699.193659,900.288037 699.272319,897.029868 698.693280,893.796820 698.142713,892.164764 697.219030,890.234134 695.671738,887.950438 694.041035,886.211931 690.884897,883.913057 688.900204,882.976663 686.630488,882.263898 684.455282,881.906522 681.881044,881.862226 679.030006,882.286139 676.673782,883.041447 673.791828,884.566265 671.682660,886.221118 670.536689,887.404749 668.268787,890.361206 667.300717,892.978389 666.647100,895.560834 666.432610,898.819601 666.832284,901.908888 667.369635,903.785614 668.135490,905.594624 668.884945,906.925595 669.849240,908.333455 672.068534,910.591955 666.476572,920.223206 664.240078,918.932124 659.045555,927.883387 681.847979,941.114756 696.722098,915.498355 687.761057,910.156145"/>
    <poly id="11527028" type="building" color="255,230,230" fill="1" layer="-1.00" shape="813.388302,708.722018 798.097994,699.882576 787.850261,717.595196 782.301862,714.383857 763.048565,747.668927 776.639932,755.537236 785.674008,739.920240 792.849596,744.069577 813.388302,708.722018"/>
    <poly id="11527077" type="building" color="255,230,230" fill="1" layer="-1.00" shape="645.760647,1025.443039 643.127078,1024.898675 639.253846,1025.360461 636.419339,1026.273554 614.130041,1035.344552 613.386852,1037.060128 622.997776,1061.757287 625.762156,1067.660356 633.090089,1069.129162 659.675168,1058.160278 660.587471,1055.876904 651.505781,1032.800706 650.515167,1030.281079 649.305645,1028.385071 648.111448,1026.722492 645.760647,1025.443039"/>
    <poly id="11527118" type="building" color="255,230,230" fill="1" layer="-1.00" shape="304.359748,932.755887 309.880883,931.441476 317.666168,929.583272 319.015755,930.789212 315.095459,944.760860 313.081120,945.203477 277.730563,953.044343 276.046217,958.533464 273.276931,966.039945 271.162853,966.560854 261.736513,956.373611 262.108850,954.893139 270.883578,928.046360 269.286463,927.453075 272.426665,918.143680 263.285947,909.489562 263.722090,907.886497 278.264598,904.508123 279.636842,905.980804 304.359748,932.755887"/>
    <poly id="11527403" type="building" color="255,230,230" fill="1" layer="-1.00" shape="461.791643,581.356162 462.123130,580.320640 462.018690,579.342644 461.313174,578.267240 447.925235,572.945045 438.555798,569.217295 437.397876,569.322499 436.634508,569.715045 436.114896,570.251054 427.589034,592.270849 427.302282,593.717572 427.585487,594.694775 428.496445,595.335627 438.102053,599.117906 437.389334,601.255887 436.250947,600.927370 435.313954,600.864812 434.457340,601.191058 433.895766,601.938513 430.136561,612.051108 430.385049,613.261961 431.168136,614.092401 432.715520,614.741549 438.604098,617.194937 446.792266,620.616596 447.771715,620.578897 448.835439,620.196141 449.460282,619.203793 452.533720,610.851030 454.038004,611.455900 453.769789,612.246527 453.945980,613.279800 454.300092,614.123263 455.224605,614.597277 477.387101,623.383074 478.360284,623.545548 479.324545,623.307783 480.285755,622.380663 482.837693,615.742530 487.821558,602.811482 489.023343,599.692885 488.983064,598.670129 488.679059,597.837560 488.017928,597.095522 478.183886,593.391997 478.472965,592.467852 478.783152,591.465782 480.229742,591.959727 481.187203,591.799824 482.199456,591.094856 486.037675,581.037543 486.041036,580.181376 485.829541,579.248329 485.061251,578.529003 474.117384,574.496832 469.060684,572.595663 467.903846,572.945471 467.097870,573.404914 463.489339,582.038010 461.791643,581.356162"/>
    <poly id="11527438" type="building" color="255,230,230" fill="1" layer="-1.00" shape="584.741442,538.372223 580.400227,549.543565 577.886528,555.158547 572.844944,566.410816 571.584674,569.251680 572.243541,569.482271 567.926909,579.730651 562.598286,592.362933 572.247587,596.345399 573.570537,593.126218 575.225999,593.963951 573.944283,596.804910 581.816847,600.016908 582.694132,597.889341 598.010607,606.027566 603.939292,594.871484 600.168893,592.775507 601.392980,589.834739 604.021722,590.857216 605.858837,585.856762 606.848141,583.183881 609.956254,584.270963 626.373546,554.945014 604.339774,546.169151 584.741442,538.372223"/>
    <poly id="11527497" type="building" color="255,230,230" fill="1" layer="-1.00" shape="718.581601,767.421676 686.655354,749.437954 668.314039,781.818745 700.240157,799.802357 718.581601,767.421676"/>
    <poly id="11527546" type="building" color="255,230,230" fill="1" layer="-1.00" shape="560.677192,1435.536781 562.410821,1439.565280 584.588193,1437.944181 582.287811,1409.145339 572.725754,1410.021421 571.382441,1405.335184 551.636775,1412.049161 560.677192,1435.536781"/>
    <poly id="11527735" type="building" color="255,230,230" fill="1" layer="-1.00" shape="409.025383,949.546552 388.527118,938.485399 389.668864,936.367741 399.185907,918.735415 399.455381,918.233870 419.953751,929.306183 409.025383,949.546552"/>
    <poly id="116306232" type="forest" color="140,196,107" fill="1" layer="-3.00" shape="2234.434075,822.414190 2240.886531,826.635142 2244.642721,825.463394 2245.978187,823.323108 2242.849552,817.109380 2230.471495,811.611810 2229.465170,815.552002 2234.434075,822.414190"/>
    <poly id="116306232#1" type="water" color="181,209,209" fill="1" layer="-4.00" shape="2234.434075,822.414190 2240.886531,826.635142 2244.642721,825.463394 2245.978187,823.323108 2242.849552,817.109380 2230.471495,811.611810 2229.465170,815.552002 2234.434075,822.414190"/>
    <poly id="116374273" type="building" color="255,230,230" fill="1" layer="-1.00" shape="1553.356334,788.267817 1539.109993,782.468413 1541.995930,775.051062 1544.949052,766.610495 1547.164443,759.562904 1549.119990,751.938232 1550.411424,744.516508 1565.925005,747.297384 1565.501431,750.279022 1562.373625,763.078900 1560.112487,771.149611 1556.684185,780.515041 1553.356334,788.267817"/>
    <poly id="117615942" type="building" color="255,230,230" fill="1" layer="-1.00" shape="539.724862,1283.945712 511.841109,1293.564448 528.815950,1342.501374 556.706626,1332.882693 539.724862,1283.945712"/>
    <poly id="122557555" type="amenity" color="237,199,199" fill="1" layer="-1.00" shape="2265.378715,1119.060235 2243.365960,1121.151773 2242.645274,1131.973354 2233.654395,1132.832995 2226.643285,1133.517750 2206.174469,1135.491923 2200.295464,1126.320777 2198.508837,1109.105033 2196.516369,1066.138911 2212.501026,1065.550717 2214.746225,1065.585981 2238.753752,1065.176214 2239.259576,1071.712017 2243.962409,1071.281350 2244.537537,1077.283165 2261.254534,1075.702539 2265.378715,1119.060235"/>
    <poly id="123387464" type="building" color="255,230,230" fill="1" layer="-1.00" shape="1219.275875,1191.714358 1240.923768,1189.720225 1241.741091,1198.589567 1240.461797,1198.706238 1241.256717,1207.353299 1242.178675,1207.271516 1242.718645,1213.151076 1221.442479,1215.110251 1220.415400,1204.018040 1219.275875,1191.714358"/>
    <poly id="123387464#1" type="historic" color="128,255,128" fill="1" layer="-1.00" shape="1219.275875,1191.714358 1240.923768,1189.720225 1241.741091,1198.589567 1240.461797,1198.706238 1241.256717,1207.353299 1242.178675,1207.271516 1242.718645,1213.151076 1221.442479,1215.110251 1220.415400,1204.018040 1219.275875,1191.714358"/>
    <poly id="123387464#2" type="tourism" color="207,245,201" fill="1" layer="-2.00" shape="1219.275875,1191.714358 1240.923768,1189.720225 1241.741091,1198.589567 1240.461797,1198.706238 1241.256717,1207.353299 1242.178675,1207.271516 1242.718645,1213.151076 1221.442479,1215.110251 1220.415400,1204.018040 1219.275875,1191.714358"/>
    <poly id="129296885" type="building" color="255,230,230" fill="1" layer="-1.00" shape="1874.950194,1503.361011 1879.578146,1509.079055 1870.398737,1515.999872 1865.568102,1509.682263 1874.950194,1503.361011"/>
    <poly id="134434122" type="building" color="255,230,230" fill="1" layer="-1.00" shape="2057.317193,280.733211 2045.726019,282.571238 2043.574769,269.015164 2055.165926,267.166014 2057.317193,280.733211"/>
    <poly id="134434145" type="building" color="255,230,230" fill="1" layer="-1.00" shape="1879.057212,268.196706 1876.829844,258.788336 1880.365053,257.706206 1876.914316,249.881804 1870.083740,204.912366 1883.374992,202.599889 1883.970487,208.223536 1889.493639,246.638325 1897.489250,267.463968 1900.133597,273.979717 1891.939596,275.926253 1890.596081,272.696266 1887.548175,265.437240 1879.057212,268.196706"/>
    <poly id="134434145#1" type="historic" color="128,255,128" fill="1" layer="-1.00" shape="1879.057212,268.196706 1876.829844,258.788336 1880.365053,257.706206 1876.914316,249.881804 1870.083740,204.912366 1883.374992,202.599889 1883.970487,208.223536 1889.493639,246.638325 1897.489250,267.463968 1900.133597,273.979717 1891.939596,275.926253 1890.596081,272.696266 1887.548175,265.437240 1879.057212,268.196706"/>
    <poly id="134434150" type="building" color="255,230,230" fill="1" layer="-1.00" shape="1976.786374,288.282612 1977.462777,292.749576 1982.107965,292.052070 1981.424416,287.585136 1976.786374,288.282612"/>
    <poly id="135193929" type="building" color="255,230,230" fill="1" layer="-1.00" shape="2379.593730,1434.435643 2368.779173,1429.765305 2364.423454,1434.597510 2372.832797,1442.035109 2379.593730,1434.435643"/>
    <poly id="135193930" type="building" color="255,230,230" fill="1" layer="-1.00" shape="2130.736822,1482.543139 2123.926970,1474.699050 2117.109904,1466.843881 2115.428697,1468.307379 2107.756155,1474.921364 2114.573225,1482.776522 2121.383080,1490.620598 2130.736822,1482.543139"/>
    <poly id="135193932" type="building" color="255,230,230" fill="1" layer="-1.00" shape="2263.508667,1474.370395 2273.388921,1463.867124 2272.376300,1459.256948 2263.088210,1457.237980 2254.709931,1466.145124 2263.508667,1474.370395"/>
    <poly id="135193933" type="building" color="255,230,230" fill="1" layer="-1.00" shape="2522.531960,1701.563800 2518.448806,1694.230766 2523.028182,1691.688261 2527.953012,1698.550902 2522.531960,1701.563800"/>
    <poly id="135193934" type="building" color="255,230,230" fill="1" layer="-1.00" shape="2335.653704,1767.290550 2324.882488,1759.073214 2329.696676,1752.793650 2340.467851,1760.999877 2335.653704,1767.290550"/>
    <poly id="135193935" type="building" color="255,230,230" fill="1" layer="-1.00" shape="2338.647069,1319.967307 2332.252840,1303.570873 2328.371777,1302.096789 2311.739617,1308.524676 2317.339298,1322.922940 2319.123993,1327.518851 2338.647069,1319.967307"/>
    <poly id="135193938" type="building" color="255,230,230" fill="1" layer="-1.00" shape="2371.132486,1502.005943 2366.033540,1506.896770 2362.213930,1502.920672 2359.394107,1505.689638 2371.326668,1518.082997 2379.274167,1510.456457 2371.132486,1502.005943"/>
    <poly id="135193939" type="building" color="255,230,230" fill="1" layer="-1.00" shape="2483.668462,1688.834435 2477.089942,1679.665819 2468.186524,1686.006307 2476.663132,1697.824619 2484.048152,1692.557708 2482.150119,1689.919117 2483.668462,1688.834435"/>
    <poly id="135193940" type="building" color="255,230,230" fill="1" layer="-1.00" shape="2306.543078,1683.250880 2314.901778,1671.364043 2305.308942,1664.654096 2296.950253,1676.540948 2298.312501,1677.502719 2306.543078,1683.250880"/>
    <poly id="135193941" type="building" color="255,230,230" fill="1" layer="-1.00" shape="2140.885770,1471.382502 2150.837968,1481.893322 2160.495068,1472.813970 2150.542827,1462.292014 2148.748137,1463.978346 2140.885770,1471.382502"/>
    <poly id="135193942" type="building" color="255,230,230" fill="1" layer="-1.00" shape="2310.800009,1467.049817 2302.419517,1461.435687 2307.002996,1454.623346 2315.390642,1460.237454 2310.800009,1467.049817"/>
    <poly id="135193943" type="building" color="255,230,230" fill="1" layer="-1.00" shape="2328.173553,1842.006376 2328.541041,1842.716482 2318.425267,1847.916933 2312.480499,1836.410970 2322.589141,1831.210538 2328.173553,1842.006376"/>
    <poly id="135193944" type="building" color="255,230,230" fill="1" layer="-1.00" shape="2501.203174,1524.204546 2488.426693,1527.536358 2486.023075,1518.350817 2498.799576,1515.019000 2501.203174,1524.204546"/>
    <poly id="135193945" type="building" color="255,230,230" fill="1" layer="-1.00" shape="2219.088302,1411.208391 2224.991417,1403.678960 2228.319910,1399.429032 2217.023521,1390.635886 2207.791877,1402.404145 2219.088302,1411.208391"/>
    <poly id="135193946" type="building" color="255,230,230" fill="1" layer="-1.00" shape="2372.064400,1363.972867 2376.729283,1375.350677 2389.862440,1369.993520 2389.125923,1368.206385 2394.907376,1365.847900 2392.668821,1360.386541 2383.033060,1364.317357 2381.343320,1360.199148 2372.064400,1363.972867"/>