<routes>
   <vType id="car0" type="passenger" length="5" accel="3.5" decel="2.2" sigma="1.0"/>
   <vType id="car1" type="passenger" length="5" accel="2.5" decel="2.2" sigma="1.0"/>
   <flow id="carflow0" type="car0" beg="0" end="200" number="50" from="174600936#0" to="5076397#1"/>
   <flow id="carflow1" type="car0" beg="0" end="200" number="50" from="-5076397#1" to="472503797"/>
</routes>
